FoamFile
{
    version      2.0;
    format       ascii;
    class        dictionary;
    object       blockMeshDict;
}

convertToMeters 1;

vertices
(
(0.00000 0.00000 0.05000) // 0
(0.00000 0.00000 0.06500) // 1
(0.00000 0.00000 0.07500) // 2
(0.00000 0.00000 0.17500) // 3
(0.00000 0.07500 0.05000) // 4
(0.00000 0.07500 0.06500) // 5
(0.00000 0.07500 0.07500) // 6
(0.00000 0.07500 0.17500) // 7
(0.27500 0.00000 0.05000) // 8
(0.27500 0.00000 0.06500) // 9
(0.27500 0.00000 0.07500) // 10
(0.27500 0.00000 0.17500) // 11
(0.27500 0.07500 0.05000) // 12
(0.27500 0.07500 0.06500) // 13
(0.27500 0.07500 0.07500) // 14
(0.27500 0.07500 0.17500) // 15
(0.30000 0.00000 0.00000) // 16
(0.30000 0.00000 0.05000) // 17
(0.30000 0.00000 0.06500) // 18
(0.30000 0.00000 0.07500) // 19
(0.30000 0.00000 0.17500) // 20
(0.30000 0.07500 0.00000) // 21
(0.30000 0.07500 0.05000) // 22
(0.30000 0.07500 0.06500) // 23
(0.30000 0.07500 0.07500) // 24
(0.30000 0.07500 0.17500) // 25
(0.55000 0.00000 0.00000) // 26
(0.55000 0.00000 0.05000) // 27
(0.55000 0.00000 0.06500) // 28
(0.55000 0.00000 0.07500) // 29
(0.55000 0.00000 0.17500) // 30
(0.55000 0.07500 0.00000) // 31
(0.55000 0.07500 0.05000) // 32
(0.55000 0.07500 0.06500) // 33
(0.55000 0.07500 0.07500) // 34
(0.55000 0.07500 0.17500) // 35
);

blocks
(
    hex (16 26 31 21 17 27 32 22) (125 38 25) simpleGrading (1 1 1)
    hex (0 8 12 4 1 9 13 5) (138 38 8) simpleGrading (1 1 1)
    hex (17 27 32 22 18 28 33 23) (125 38 8) simpleGrading (1 1 1)
    hex (1 9 13 5 2 10 14 6) (138 38 5) simpleGrading (1 1 1)
    hex (18 28 33 23 19 29 34 24) (125 38 5) simpleGrading (1 1 1)
    hex (2 10 14 6 3 11 15 7) (138 38 50) simpleGrading (1 1 1)
    hex (10 19 24 14 11 20 25 15) (12 38 50) simpleGrading (1 1 1)
    hex (19 29 34 24 20 30 35 25) (125 38 50) simpleGrading (1 1 1)
);

boundary
(
    walls
    {
        type wall;
        faces
        (
         (1 2 6 5) 
         (0 1 5 4) 
         (1 9 10 2) 
         (0 8 9 1) 
         (10 19 20 11) 
         (2 10 11 3) 
         (19 29 30 20) 
         (18 28 29 19) 
         (16 26 27 17) 
         (16 17 22 21) 
         (17 18 23 22) 
         (18 19 24 23) 
         (12 13 9 8) 
         (13 14 10 9) 
         (10 14 24 19) 
         (0 4 12 8) 
         (16 21 31 26) 
         (17 27 28 18) 
         (31 32 27 26) 
         (3 11 15 7) 
         (11 20 25 15) 
         (20 30 35 25) 
        );
    }
    plane
    {
        type symmetryPlane;
        faces
        (
         (24 25 35 34) 
         (23 24 34 33) 
         (22 23 33 32) 
         (21 22 32 31) 
         (6 7 15 14) 
         (5 6 14 13) 
         (4 5 13 12) 
         (14 15 25 24) 
        );
    }
    outlet
    {
        type patch;
        faces
        (
         (34 35 30 29) 
         (33 34 29 28) 
         (32 33 28 27) 
        );
    }
    inlet
    {
        type patch;
        faces
        (
         (2 3 7 6) 
        );
    }
);


edges
(
);