FoamFile
{
    version      2.0;
    format       ascii;
    class        dictionary;
    object       blockMeshDict;
}

convertToMeters 1;

vertices
(
(0.00000 0.00000 0.00000) // 0
(0.00000 0.00000 0.05000) // 1
(0.00000 0.00000 0.07500) // 2
(0.00000 0.00000 0.17500) // 3
(0.00000 0.07500 0.00000) // 4
(0.00000 0.07500 0.05000) // 5
(0.00000 0.07500 0.07500) // 6
(0.00000 0.07500 0.17500) // 7
(0.30000 0.00000 0.00000) // 8
(0.30000 0.00000 0.05000) // 9
(0.30000 0.00000 0.07500) // 10
(0.30000 0.00000 0.17500) // 11
(0.30000 0.07500 0.00000) // 12
(0.30000 0.07500 0.05000) // 13
(0.30000 0.07500 0.07500) // 14
(0.30000 0.07500 0.17500) // 15
(0.55000 0.00000 0.00000) // 16
(0.55000 0.00000 0.05000) // 17
(0.55000 0.00000 0.07500) // 18
(0.55000 0.00000 0.17500) // 19
(0.55000 0.07500 0.00000) // 20
(0.55000 0.07500 0.05000) // 21
(0.55000 0.07500 0.07500) // 22
(0.55000 0.07500 0.17500) // 23
);

blocks
(
    hex (8 16 20 12 9 17 21 13) (125 37 25) simpleGrading (1 1 1)
    hex (1 9 13 5 2 10 14 6) (150 37 12) simpleGrading (1 1 1)
    hex (9 17 21 13 10 18 22 14) (125 37 12) simpleGrading (1 1 1)
    hex (2 10 14 6 3 11 15 7) (150 37 49) simpleGrading (1 1 1)
    hex (10 18 22 14 11 19 23 15) (125 37 49) simpleGrading (1 1 1)
);

boundary
(
    upstreamInlet
    {
        type patch;
        faces
        (
         (2 3 7 6) 
        );
    }
    walls
    {
        type wall;
        faces
        (
         (1 2 6 5) 
         (2 10 11 3) 
         (1 9 10 2) 
         (10 18 19 11) 
         (9 17 18 10) 
         (8 16 17 9) 
         (8 9 13 12) 
         (8 12 20 16) 
         (1 5 13 9) 
         (20 21 17 16) 
        );
    }
    downstreamOutlet
    {
        type patch;
        faces
        (
         (22 23 19 18) 
         (21 22 18 17) 
        );
    }
    top
    {
        type wall;
        faces
        (
         (3 11 15 7) 
         (11 19 23 15) 
        );
    }
    plane
    {
        type symmetryPlane;
        faces
        (
         (6 7 15 14) 
         (5 6 14 13) 
         (14 15 23 22) 
         (12 13 21 20) 
         (13 14 22 21) 
        );
    }
);


edges
(
);

edges
(
);
