/*--------------------------------*- C++ -*----------------------------------*\
| =========                 |                                                 |
| \\      /  F ield         | OpenFOAM: The Open Source CFD Toolbox           |
|  \\    /   O peration     | Version:  1.7.1                                 |
|   \\  /    A nd           | Web:      www.OpenFOAM.com                      |
|    \\/     M anipulation  |                                                 |
\*---------------------------------------------------------------------------*/
FoamFile
{
    version     2.0;
    format      ascii;
    class       dictionary;
    object      blockMeshDict;
}
// * * * * * * * * * * * * * * * * * * * * * * * * * * * * * * * * * * * * * //

convertToMeters 1;

vertices        
(
    (0.0  -0.075  -0.02)   //0
    (0.2  -0.075  -0.02)   //1
    (0.2  -0.075  -0.07)   //2
    (0.4  -0.075  -0.07)   //3 
    (0.4  -0.075  -0.02)   //4
    (0.4  -0.075   0)      //5
    (0.2  -0.075   0)      //6
    (0.0  -0.075   0)      //7
    (0.0  -0.075   0.10)   //8
    (0.2  -0.075   0.10)   //9
    (0.4  -0.075   0.10)   //10

    (0.0  0.075  -0.02)    //11
    (0.2  0.075  -0.02)    //12
    (0.2  0.075  -0.07)    //13
    (0.4  0.075  -0.07)    //14 
    (0.4  0.075  -0.02)    //15
    (0.4  0.075   0)       //16
    (0.2  0.075   0)       //17
    (0.0  0.075   0)       //18
    (0.0  0.075   0.10)    //19
    (0.2  0.075   0.10)    //20
    (0.4  0.075   0.10)    //21
);

blocks          
(
    hex (0 1 12 11 7  6 17 18) (40 40 4)   simpleGrading (1 1 1)  //block 0
    hex (7 6 17 18 8  9 20 19) (40 40 20)  simpleGrading (1 1 1)   //block 1
    hex (6 5 16 17 9 10 21 20) (40 40 20)   simpleGrading (1 1 1)   //block 2
    hex (1 4 15 12 6  5 16 17) (40 40 4)    simpleGrading (1 1 1)   //block 3
    hex (2 3 14 13 1  4 15 12) (40 40 10)   simpleGrading (1 1 1)   //block 4
);

edges           
(
);

boundary         
(
    /*upstreamWall 
    {
     type   wall;
     faces 
	    ((0 7 18 11));
    }*/

    downstreamOutlet
    {
     type   patch;
     faces  (
             
             (4 15 16 5) //above zero
             (5 16 21 10)//above zero 
             );
    }

    upstreamInlet
    {
     type patch;
     faces ((7 8 19 18));

    }

    /*inandouthalf22
    {
     type wall;
     faces ((4 15 16 5));
    }*/

    top
    { 
     type patch;
        faces (
            (8 9 20 19)
            (9 10 21 20)
        );

    }

    walls 
    {
     type wall;
     faces (
           //floor
           (0 11 12 1)
           (2 13 14 3)

           //near wall
           (0 1 6 7)
           (7 6 9 8)
           (2 3 4 1)
           (1 4 5 6)
           (6 5 10 9)           

           //far wall
           (11 18 17 12)
           (18 19 20 17)
           (13 12 15 14)
           (12 17 16 15)
           (17 20 21 16)

           //drop wall
           (2 1 12 13)

           //downstream wall of trap
           (3 14 15 4) //below zero
            (0 7 18 11)

           );

    }
    
    /*frontAndBackPlanes
    {
    type wall;
    faces (
           (0 1 6 7)
           (7 6 9 8)
           (2 3 4 1)
           (1 4 5 6)
           (6 5 10 9)
          );
    }*/

);

mergePatchPairs
(
);

// ************************************************************************* //
