/*--------------------------------*- C++ -*----------------------------------*\
| =========                 |                                                 |
| \\      /  F ield         | OpenFOAM: The Open Source CFD Toolbox           |
|  \\    /   O peration     | Version:  1.7.1                                 |
|   \\  /    A nd           | Web:      www.OpenFOAM.com                      |
|    \\/     M anipulation  |                                                 |
\*---------------------------------------------------------------------------*/
FoamFile
{
    version     2.0;
    format      ascii;
    class       dictionary;
    location    "system";
    object      controlDict;
}
// * * * * * * * * * * * * * * * * * * * * * * * * * * * * * * * * * * * * * //

application     sedFoam;

startFrom       latestTime;

startTime       0;

stopAt          endTime;

endTime         60;

deltaT          2e-4;

writeControl    adjustableRunTime;

writeInterval   0.02;

purgeWrite      0;

writeFormat     binary;

writePrecision  6;

writeCompression uncompressed;

timeFormat      general;

timePrecision   6;

runTimeModifiable on;

adjustTimeStep  true;

maxCo           0.8;

maxAlphaCo      0.8;

maxDeltaT       0.5;

functions
{

        /*sed_vol_integrate_trap
        {
        type volFieldValue;
        libs ("libfieldFunctionObjects.so");
        log true;
        writeControl writeTime;
        writeFields true;
        regionType cellZone;
        name trap;
        operation volIntegrate;
        fields (alpha_a);
        }

        sed_vol_integrate_platform
        {
        type volFieldValue;
        libs ("libfieldFunctionObjects.so");
        log true;
        writeControl writeTime;
        writeFields true;
        regionType cellZone;
        name plateau;
        operation volIntegrate;
        fields (alpha_a);
        }*/

}


libs (
"libgroovyBC.so"
"libgroovyStandardBCs.so"
     );

// ************************************************************************* //
