/*--------------------------------*- C++ -*----------------------------------*\
| =========                 |                                                 |
| \\      /  F ield         | OpenFOAM: The Open Source CFD Toolbox           |
|  \\    /   O peration     | Version:  4.x                                   |
|   \\  /    A nd           | Web:      www.OpenFOAM.org                      |
|    \\/     M anipulation  |                                                 |
\*---------------------------------------------------------------------------*/
FoamFile
{
    version     2.0;
    format      ascii;
    class       dictionary;
    location    "system";
    object      setFieldsDict;
}
// * * * * * * * * * * * * * * * * * * * * * * * * * * * * * * * * * * * * * //

defaultFieldValues
(
    volScalarFieldValue alpha_a 0.00001
);

regions
(
    /*zoneToCell
    {
        name "sedimentZone";
        fieldValues
        (
            volScalarFieldValue alpha_a 0.64
            volVectorFieldValue Ua (1e-10 0 0)
            volVectorFieldValue Ub (1e-10 0 0)
        );
    }*/

   boxToCell
    {
        box (0 0.0 0.05) (0.30 0.075 0.075);
        fieldValues
        (
            volScalarFieldValue alpha_a 0.63
            volVectorFieldValue Ua (0 0 0)
            volVectorFieldValue Ub (0 0 0)
        );
}
	
);


// ************************************************************************* //
